[Format]      =  4.0
[Frequency]   =  15000000
[Precision]   =  1e-010
[MinAngle]    =  30
[DoSmartMesh] =  1
[Depth]       =  4
[LengthUnits] =  millimeters
[ProblemType] =  planar
[Coordinates] =  cartesian
[ACSolver]    =  0
[PrevType]    =  0
[PrevSoln]    =  ""
[Comment]     =  "Add comments here."
[PointProps]   = 0
[BdryProps]   = 3
  <BeginBdry>
    <BdryName> = "Bounds"
    <BdryType> = 0
    <A_0> = 0
    <A_1> = 0
    <A_2> = 0
    <Phi> = 0
    <c0> = 0
    <c0i> = 0
    <c1> = 0
    <c1i> = 0
    <Mu_ssd> = 0
    <Sigma_ssd> = 0
    <innerangle> = 0
    <outerangle> = 0
  <EndBdry>
  <BeginBdry>
    <BdryName> = "A=0"
    <BdryType> = 0
    <A_0> = 0
    <A_1> = 0
    <A_2> = 0
    <Phi> = 0
    <c0> = 0
    <c0i> = 0
    <c1> = 0
    <c1i> = 0
    <Mu_ssd> = 0
    <Sigma_ssd> = 0
    <innerangle> = 0
    <outerangle> = 0
  <EndBdry>
  <BeginBdry>
    <BdryName> = "A=0"
    <BdryType> = 0
    <A_0> = 0
    <A_1> = 0
    <A_2> = 0
    <Phi> = 0
    <c0> = 0
    <c0i> = 0
    <c1> = 0
    <c1i> = 0
    <Mu_ssd> = 0
    <Sigma_ssd> = 0
    <innerangle> = 0
    <outerangle> = 0
  <EndBdry>
[BlockProps]  = 27
  <BeginBlock>
    <BlockName> = "Air"
    <Mu_x> = 1
    <Mu_y> = 1
    <H_c> = 0
    <H_cAngle> = 0
    <J_re> = 0
    <J_im> = 0
    <Sigma> = 0
    <d_lam> = 0
    <Phi_h> = 0
    <Phi_hx> = 0
    <Phi_hy> = 0
    <LamType> = 0
    <LamFill> = 1
    <NStrands> = 0
    <WireD> = 0
    <BHPoints> = 0
  <EndBlock>
  <BeginBlock>
    <BlockName> = "Copper"
    <Mu_x> = 1
    <Mu_y> = 1
    <H_c> = 0
    <H_cAngle> = 0
    <J_re> = 0
    <J_im> = 0
    <Sigma> = 58
    <d_lam> = 0
    <Phi_h> = 0
    <Phi_hx> = 0
    <Phi_hy> = 0
    <LamType> = 0
    <LamFill> = 1
    <NStrands> = 0
    <WireD> = 0
    <BHPoints> = 0
  <EndBlock>
  <BeginBlock>
    <BlockName> = "EFW"
    <Mu_x> = 55
    <Mu_y> = 55
    <H_c> = 0
    <H_cAngle> = 0
    <J_re> = 0
    <J_im> = 0
    <Sigma> = 2e-008
    <d_lam> = 0
    <Phi_h> = 0
    <Phi_hx> = 0
    <Phi_hy> = 0
    <LamType> = 0
    <LamFill> = 1
    <NStrands> = 0
    <WireD> = 0
    <BHPoints> = 0
  <EndBlock>
  <BeginBlock>
    <BlockName> = "Mu Metal"
    <Mu_x> = 82910
    <Mu_y> = 82910
    <H_c> = 0
    <H_cAngle> = 0
    <J_re> = 0
    <J_im> = 0
    <Sigma> = 1.8
    <d_lam> = 0
    <Phi_h> = 0
    <Phi_hx> = 0
    <Phi_hy> = 0
    <LamType> = 0
    <LamFill> = 1
    <NStrands> = 0
    <WireD> = 0
    <BHPoints> = 31
      0	0
      0.080001000000000003	0.79577500000000001
      0.099140000000000006	1.0342340000000001
      0.12679699999999999	1.344149
      0.16478400000000001	1.7469330000000001
      0.21423800000000001	2.270413
      0.27441399999999999	2.9507569999999999
      0.34069300000000002	3.8349700000000002
      0.39480599999999999	4.9841449999999998
      0.43570300000000001	6.4776769999999999
      0.46653800000000001	8.4187550000000009
      0.49254100000000001	10.941490999999999
      0.51263599999999998	14.220181
      0.53089299999999995	18.481352000000001
      0.54834099999999997	24.019411000000002
      0.56394500000000003	31.216987
      0.57866499999999998	40.571362999999998
      0.59203600000000001	52.728839999999998
      0.60396099999999997	68.529386000000002
      0.61424699999999999	89.064670000000007
      0.62285900000000005	115.75348700000001
      0.63014599999999998	150.439784
      0.63628200000000001	195.52006
      0.64158999999999999	254.10893899999999
      0.64653300000000002	330.25436300000001
      0.65073700000000001	429.217266
      0.65423600000000004	557.835058
      0.65707000000000004	724.99402199999997
      0.65927800000000003	942.24327400000004
      0.66090599999999999	1224.592701
      0.66200000000000003	1591.55
  <EndBlock>
  <BeginBlock>
    <BlockName> = "Supermalloy"
    <Mu_x> = 529095
    <Mu_y> = 529095
    <H_c> = 0
    <H_cAngle> = 0
    <J_re> = 0
    <J_im> = 0
    <Sigma> = 1.7
    <d_lam> = 0
    <Phi_h> = 0
    <Phi_hx> = 0
    <Phi_hy> = 0
    <LamType> = 0
    <LamFill> = 1
    <NStrands> = 0
    <WireD> = 0
    <BHPoints> = 12
      0	0
      0.45000099999999998	0.79577500000000001
      0.57500200000000001	1.59155
      0.62500299999999998	2.3873250000000001
      0.65000400000000003	3.1831
      0.680006	4.7746490000000001
      0.70000799999999996	6.3662000000000001
      0.72567300000000001	10.138479999999999
      0.744506	15.68595
      0.76002999999999998	23.873249999999999
      0.78046000000000004	48
      0.78510000000000002	79.577500000000001
  <EndBlock>
  <BeginBlock>
    <BlockName> = "316 Stainless Steel"
    <Mu_x> = 1
    <Mu_y> = 1
    <H_c> = 0
    <H_cAngle> = 0
    <J_re> = 0
    <J_im> = 0
    <Sigma> = 1.3340000000000001
    <d_lam> = 0
    <Phi_h> = 0
    <Phi_hx> = 0
    <Phi_hy> = 0
    <LamType> = 0
    <LamFill> = 1
    <NStrands> = 0
    <WireD> = 0
    <BHPoints> = 0
  <EndBlock>
  <BeginBlock>
    <BlockName> = "Vanadium Permendur"
    <Mu_x> = 1
    <Mu_y> = 1
    <H_c> = 0
    <H_cAngle> = 0
    <J_re> = 0
    <J_im> = 0
    <Sigma> = 2.6099999999999999
    <d_lam> = 0
    <Phi_h> = 0
    <Phi_hx> = 0
    <Phi_hy> = 0
    <LamType> = 0
    <LamFill> = 1
    <NStrands> = 0
    <WireD> = 0
    <BHPoints> = 28
      0	0
      0.104111	88.578889000000004
      0.123597	93.281333000000004
      0.152143	100.285222
      0.176152	105.604444
      0.18113399999999999	106.7
      0.19833899999999999	110.056667
      0.21856900000000001	113.514444
      0.225964	114.69
      0.546427	154.43111099999999
      0.85717399999999999	187.443333
      1.1988019999999999	257.63222200000001
      1.482623	381.08333299999998
      1.5809770000000001	458.93000000000001
      1.758381	701.23444400000005
      1.8152740000000001	810.496667
      1.819229	818.92555600000003
      1.8274170000000001	836.03999999999996
      2.0326979999999999	1492.4666669999999
      2.1362000000000001	2122.3444439999998
      2.2573829999999999	3638.0999999999999
      2.2986810000000002	4618.1555559999997
      2.318441	5284.9555559999999
      2.3767619999999998	10270.777778
      2.414622	22856.333332999999
      2.4520170000000001	45850.333333000002
      2.588873	149902.22222200001
      2.8073090000000001	323410
  <EndBlock>
  <BeginBlock>
    <BlockName> = "M-15 Steel"
    <Mu_x> = 1
    <Mu_y> = 1
    <H_c> = 0
    <H_cAngle> = 0
    <J_re> = 0
    <J_im> = 0
    <Sigma> = 1.8999999999999999
    <d_lam> = 0.63500000000000001
    <Phi_h> = 0
    <Phi_hx> = 0
    <Phi_hy> = 0
    <LamType> = 0
    <LamFill> = 0.97999999999999998
    <NStrands> = 0
    <WireD> = 0
    <BHPoints> = 47
      0	0
      0.050000000000000003	15.120714
      0.10000000000000001	22.718292000000002
      0.14999999999999999	27.842732999999999
      0.20000000000000001	31.871434000000001
      0.25	35.365043999999997
      0.29999999999999999	38.600588000000002
      0.34999999999999998	41.736201999999999
      0.40000000000000002	44.873978999999999
      0.45000000000000001	48.087806999999998
      0.5	51.437235999999999
      0.55000000000000004	54.975220999999998
      0.59999999999999998	58.752992999999996
      0.65000000000000002	62.823644000000002
      0.69999999999999996	67.245284999999996
      0.75	72.084406000000001
      0.80000000000000004	77.420100000000005
      0.84999999999999998	83.350020999999998
      0.90000000000000002	89.999611999999999
      0.94999999999999996	97.537352999999996
      1	106.20140600000001
      1.05	116.34846400000001
      1.1000000000000001	128.54732899999999
      1.1499999999999999	143.76543100000001
      1.2	163.75416899999999
      1.25	191.86815799999999
      1.3	234.833507
      1.3500000000000001	306.50976900000001
      1.3999999999999999	435.255202
      1.45	674.911968
      1.5	1108.3255690000001
      1.55	1813.085468
      1.6000000000000001	2801.2174209999998
      1.6499999999999999	4053.6531169999998
      1.7	5591.10689
      1.75	7448.318413
      1.8	9708.81567
      1.8500000000000001	12486.931615
      1.8999999999999999	16041.483644
      1.95	21249.420623999998
      2	31313.495878000002
      2.0499999999999998	53589.446877000002
      2.1000000000000001	88477.484601000004
      2.1499999999999999	124329.41054
      2.2000000000000002	159968.5693
      2.25	197751.604272
      2.2999999999999998	234024.75134700001
  <EndBlock>
  <BeginBlock>
    <BlockName> = "M-36 Steel"
    <Mu_x> = 1616
    <Mu_y> = 1616
    <H_c> = 0
    <H_cAngle> = 0
    <J_re> = 0
    <J_im> = 0
    <Sigma> = 2
    <d_lam> = 0.63500000000000001
    <Phi_h> = 0
    <Phi_hx> = 0
    <Phi_hy> = 0
    <LamType> = 0
    <LamFill> = 0.97999999999999998
    <NStrands> = 0
    <WireD> = 0
    <BHPoints> = 47
      0	0
      0.050000000000000003	19.398586000000002
      0.10000000000000001	29.611086
      0.14999999999999999	36.311286000000003
      0.20000000000000001	41.398969999999998
      0.25	45.654680999999997
      0.29999999999999999	49.463585000000002
      0.34999999999999998	53.042856999999998
      0.40000000000000002	56.529325
      0.45000000000000001	60.018492000000002
      0.5	63.584023999999999
      0.55000000000000004	67.288555000000002
      0.59999999999999998	71.190393999999998
      0.65000000000000002	75.348315999999997
      0.69999999999999996	79.825601000000006
      0.75	84.694101000000003
      0.80000000000000004	90.039004000000006
      0.84999999999999998	95.965085000000002
      0.90000000000000002	102.60559499999999
      0.94999999999999996	110.135639
      1	118.793308
      1.05	128.91455500000001
      1.1000000000000001	140.99328499999999
      1.1499999999999999	155.78958700000001
      1.2	174.53384
      1.25	199.32994600000001
      1.3	233.989035
      1.3500000000000001	285.82186100000001
      1.3999999999999999	369.57162599999998
      1.45	515.788276
      1.5	785.78510400000005
      1.55	1282.7937979999999
      1.6000000000000001	2108.172454
      1.6499999999999999	3257.880122
      1.7	4726.4426309999999
      1.75	6512.0094010000003
      1.8	8720.2655529999993
      1.8500000000000001	11459.429228999999
      1.8999999999999999	14887.904936999999
      1.95	19350.577347999999
      2	26042.602019000002
      2.0499999999999998	39200.400310999998
      2.1000000000000001	65518.130312000001
      2.1499999999999999	100476.654669
      2.2000000000000002	136976.920182
      2.25	176029.81784199999
      2.2999999999999998	215228.81031199999
  <EndBlock>
  <BeginBlock>
    <BlockName> = "416 Stainless Steel"
    <Mu_x> = 440
    <Mu_y> = 440
    <H_c> = 0
    <H_cAngle> = 0
    <J_re> = 0
    <J_im> = 0
    <Sigma> = 0
    <d_lam> = 0
    <Phi_h> = 0
    <Phi_hx> = 0
    <Phi_hy> = 0
    <LamType> = 0
    <LamFill> = 1
    <NStrands> = 0
    <WireD> = 0
    <BHPoints> = 12
      0	0
      0.20039999999999999	318.31
      0.42559999999999998	477.46499999999997
      0.76100000000000001	795.77499999999998
      1.097	1591.55
      1.2330000000000001	2387.3249999999998
      1.335	3978.875
      1.46	7957.75
      1.5900000000000001	15915.5
      1.6899999999999999	31831
      1.724232	44456.279999999999
      1.74	55704.25
  <EndBlock>
  <BeginBlock>
    <BlockName> = "17-4"
    <Mu_x> = 955000
    <Mu_y> = 955000
    <H_c> = 0
    <H_cAngle> = 0
    <J_re> = 0
    <J_im> = 0
    <Sigma> = 1.25
    <d_lam> = 0
    <Phi_h> = 0
    <Phi_hx> = 0
    <Phi_hy> = 0
    <LamType> = 0
    <LamFill> = 1
    <NStrands> = 0
    <WireD> = 0
    <BHPoints> = 0
  <EndBlock>
  <BeginBlock>
    <BlockName> = "Pyrolytic Carbon"
    <Mu_x> = 0.99960000000000004
    <Mu_y> = 0.99960000000000004
    <H_c> = 0
    <H_cAngle> = 0
    <J_re> = 0
    <J_im> = 0
    <Sigma> = 1
    <d_lam> = 0
    <Phi_h> = 0
    <Phi_hx> = 0
    <Phi_hy> = 0
    <LamType> = 0
    <LamFill> = 1
    <NStrands> = 0
    <WireD> = 0
    <BHPoints> = 0
  <EndBlock>
  <BeginBlock>
    <BlockName> = "Metglas 2714"
    <Mu_x> = 1000
    <Mu_y> = 1000
    <H_c> = 0
    <H_cAngle> = 0
    <J_re> = 0
    <J_im> = 0
    <Sigma> = 0.69999999999999996
    <d_lam> = 0
    <Phi_h> = 0
    <Phi_hx> = 0
    <Phi_hy> = 0
    <LamType> = 0
    <LamFill> = 1
    <NStrands> = 0
    <WireD> = 0
    <BHPoints> = 0
  <EndBlock>
  <BeginBlock>
    <BlockName> = "u1"
    <Mu_x> = 2.6498996896116669
    <Mu_y> = 2.6498996896116669
    <H_c> = 0
    <H_cAngle> = 0
    <J_re> = 0
    <J_im> = 0
    <Sigma> = 0
    <d_lam> = 0
    <Phi_h> = 0
    <Phi_hx> = 0
    <Phi_hy> = 0
    <LamType> = 0
    <LamFill> = 1
    <NStrands> = 0
    <WireD> = 0
    <BHPoints> = 0
  <EndBlock>
  <BeginBlock>
    <BlockName> = "u2"
    <Mu_x> = 0.12953316809300527
    <Mu_y> = 0.12953316809300527
    <H_c> = 0
    <H_cAngle> = 0
    <J_re> = 0
    <J_im> = 0
    <Sigma> = 0
    <d_lam> = 0
    <Phi_h> = 0
    <Phi_hx> = 0
    <Phi_hy> = 0
    <LamType> = 0
    <LamFill> = 1
    <NStrands> = 0
    <WireD> = 0
    <BHPoints> = 0
  <EndBlock>
  <BeginBlock>
    <BlockName> = "u3"
    <Mu_x> = 14.398967120915913
    <Mu_y> = 14.398967120915913
    <H_c> = 0
    <H_cAngle> = 0
    <J_re> = 0
    <J_im> = 0
    <Sigma> = 0
    <d_lam> = 0
    <Phi_h> = 0
    <Phi_hx> = 0
    <Phi_hy> = 0
    <LamType> = 0
    <LamFill> = 1
    <NStrands> = 0
    <WireD> = 0
    <BHPoints> = 0
  <EndBlock>
  <BeginBlock>
    <BlockName> = "u4"
    <Mu_x> = 0.042882574356338271
    <Mu_y> = 0.042882574356338271
    <H_c> = 0
    <H_cAngle> = 0
    <J_re> = 0
    <J_im> = 0
    <Sigma> = 0
    <d_lam> = 0
    <Phi_h> = 0
    <Phi_hx> = 0
    <Phi_hy> = 0
    <LamType> = 0
    <LamFill> = 1
    <NStrands> = 0
    <WireD> = 0
    <BHPoints> = 0
  <EndBlock>
  <BeginBlock>
    <BlockName> = "u5"
    <Mu_x> = 37.197476986533054
    <Mu_y> = 37.197476986533054
    <H_c> = 0
    <H_cAngle> = 0
    <J_re> = 0
    <J_im> = 0
    <Sigma> = 0
    <d_lam> = 0
    <Phi_h> = 0
    <Phi_hx> = 0
    <Phi_hy> = 0
    <LamType> = 0
    <LamFill> = 1
    <NStrands> = 0
    <WireD> = 0
    <BHPoints> = 0
  <EndBlock>
  <BeginBlock>
    <BlockName> = "u6"
    <Mu_x> = 0.015664246064106369
    <Mu_y> = 0.015664246064106369
    <H_c> = 0
    <H_cAngle> = 0
    <J_re> = 0
    <J_im> = 0
    <Sigma> = 0
    <d_lam> = 0
    <Phi_h> = 0
    <Phi_hx> = 0
    <Phi_hy> = 0
    <LamType> = 0
    <LamFill> = 1
    <NStrands> = 0
    <WireD> = 0
    <BHPoints> = 0
  <EndBlock>
  <BeginBlock>
    <BlockName> = "u7"
    <Mu_x> = 142.03015659052124
    <Mu_y> = 142.03015659052124
    <H_c> = 0
    <H_cAngle> = 0
    <J_re> = 0
    <J_im> = 0
    <Sigma> = 0
    <d_lam> = 0
    <Phi_h> = 0
    <Phi_hx> = 0
    <Phi_hy> = 0
    <LamType> = 0
    <LamFill> = 1
    <NStrands> = 0
    <WireD> = 0
    <BHPoints> = 0
  <EndBlock>
  <BeginBlock>
    <BlockName> = "u1"
    <Mu_x> = 2.6498996896116669
    <Mu_y> = 2.6498996896116669
    <H_c> = 0
    <H_cAngle> = 0
    <J_re> = 0
    <J_im> = 0
    <Sigma> = 0
    <d_lam> = 0
    <Phi_h> = 0
    <Phi_hx> = 0
    <Phi_hy> = 0
    <LamType> = 0
    <LamFill> = 1
    <NStrands> = 0
    <WireD> = 0
    <BHPoints> = 0
  <EndBlock>
  <BeginBlock>
    <BlockName> = "u2"
    <Mu_x> = 0.12953316809300527
    <Mu_y> = 0.12953316809300527
    <H_c> = 0
    <H_cAngle> = 0
    <J_re> = 0
    <J_im> = 0
    <Sigma> = 0
    <d_lam> = 0
    <Phi_h> = 0
    <Phi_hx> = 0
    <Phi_hy> = 0
    <LamType> = 0
    <LamFill> = 1
    <NStrands> = 0
    <WireD> = 0
    <BHPoints> = 0
  <EndBlock>
  <BeginBlock>
    <BlockName> = "u3"
    <Mu_x> = 14.398967120915913
    <Mu_y> = 14.398967120915913
    <H_c> = 0
    <H_cAngle> = 0
    <J_re> = 0
    <J_im> = 0
    <Sigma> = 0
    <d_lam> = 0
    <Phi_h> = 0
    <Phi_hx> = 0
    <Phi_hy> = 0
    <LamType> = 0
    <LamFill> = 1
    <NStrands> = 0
    <WireD> = 0
    <BHPoints> = 0
  <EndBlock>
  <BeginBlock>
    <BlockName> = "u4"
    <Mu_x> = 0.042882574356338271
    <Mu_y> = 0.042882574356338271
    <H_c> = 0
    <H_cAngle> = 0
    <J_re> = 0
    <J_im> = 0
    <Sigma> = 0
    <d_lam> = 0
    <Phi_h> = 0
    <Phi_hx> = 0
    <Phi_hy> = 0
    <LamType> = 0
    <LamFill> = 1
    <NStrands> = 0
    <WireD> = 0
    <BHPoints> = 0
  <EndBlock>
  <BeginBlock>
    <BlockName> = "u5"
    <Mu_x> = 37.197476986533054
    <Mu_y> = 37.197476986533054
    <H_c> = 0
    <H_cAngle> = 0
    <J_re> = 0
    <J_im> = 0
    <Sigma> = 0
    <d_lam> = 0
    <Phi_h> = 0
    <Phi_hx> = 0
    <Phi_hy> = 0
    <LamType> = 0
    <LamFill> = 1
    <NStrands> = 0
    <WireD> = 0
    <BHPoints> = 0
  <EndBlock>
  <BeginBlock>
    <BlockName> = "u6"
    <Mu_x> = 0.015664246064106369
    <Mu_y> = 0.015664246064106369
    <H_c> = 0
    <H_cAngle> = 0
    <J_re> = 0
    <J_im> = 0
    <Sigma> = 0
    <d_lam> = 0
    <Phi_h> = 0
    <Phi_hx> = 0
    <Phi_hy> = 0
    <LamType> = 0
    <LamFill> = 1
    <NStrands> = 0
    <WireD> = 0
    <BHPoints> = 0
  <EndBlock>
  <BeginBlock>
    <BlockName> = "u7"
    <Mu_x> = 142.03015659052124
    <Mu_y> = 142.03015659052124
    <H_c> = 0
    <H_cAngle> = 0
    <J_re> = 0
    <J_im> = 0
    <Sigma> = 0
    <d_lam> = 0
    <Phi_h> = 0
    <Phi_hx> = 0
    <Phi_hy> = 0
    <LamType> = 0
    <LamFill> = 1
    <NStrands> = 0
    <WireD> = 0
    <BHPoints> = 0
  <EndBlock>
[CircuitProps]  = 3
  <BeginCircuit>
    <CircuitName> = "Coil_Pos"
    <TotalAmps_re> = 0.0040000000000000001
    <TotalAmps_im> = 0
    <CircuitType> = 1
  <EndCircuit>
  <BeginCircuit>
    <CircuitName> = "Coil_Neg"
    <TotalAmps_re> = -0.0040000000000000001
    <TotalAmps_im> = 0
    <CircuitType> = 1
  <EndCircuit>
  <BeginCircuit>
    <CircuitName> = "None"
    <TotalAmps_re> = 0
    <TotalAmps_im> = 0
    <CircuitType> = 1
  <EndCircuit>
[NumPoints] = 78
6.6000000000000005	4.7249999999999996	0	0
6.6000000000000005	4.75	0	0
6.5250000000000004	4.75	0	0
6.5250000000000004	4.7249999999999996	0	0
6.6000000000000005	4.6749999999999998	0	0
6.6000000000000005	4.6499999999999995	0	0
6.5250000000000004	4.6749999999999998	0	0
6.5250000000000004	4.6499999999999995	0	0
7.6500000000000004	4.6499999999999995	0	0
7.6500000000000004	4.6749999999999998	0	0
7.6500000000000004	4.7249999999999996	0	0
7.6500000000000004	4.75	0	0
7.7250000000000005	4.75	0	0
7.7250000000000005	4.7249999999999996	0	0
7.7250000000000005	4.6749999999999998	0	0
7.7250000000000005	4.6499999999999995	0	0
6	4.5999999999999996	0	0
6	4.5499999999999998	0	0
8.25	4.5999999999999996	0	0
8.25	4.5499999999999998	0	0
6	5	0	0
8.25	5	0	0
6.4500000000000002	4.7249999999999996	0	0
6.4500000000000002	4.75	0	0
6.375	4.75	0	0
6.375	4.7249999999999996	0	0
6.4500000000000002	4.6749999999999998	0	0
6.4500000000000002	4.6499999999999995	0	0
6.375	4.6749999999999998	0	0
6.375	4.6499999999999995	0	0
7.8000000000000007	4.6499999999999995	0	0
7.8000000000000007	4.6749999999999998	0	0
7.8000000000000007	4.7249999999999996	0	0
7.8000000000000007	4.75	0	0
7.8750000000000009	4.75	0	0
7.8750000000000009	4.7249999999999996	0	0
7.8750000000000009	4.6749999999999998	0	0
7.8750000000000009	4.6499999999999995	0	0
7.125	6.4959199999999999	0	0
7.125	3.0540800000000004	0	0
7.125	3.0294954285714288	0	0
7.125	6.5205045714285719	0	0
7.125	3.0049108571428578	0	0
7.125	6.5450891428571429	0	0
7.125	2.9803262857142858	0	0
7.125	6.5696737142857149	0	0
7.125	2.9557417142857147	0	0
7.125	6.594258285714286	0	0
7.125	2.9311571428571437	0	0
7.125	6.618842857142857	0	0
7.125	2.9065725714285717	0	0
7.125	6.643427428571429	0	0
7.125	2.8819880000000007	0	0
7.125	6.6680120000000001	0	0
6.75	4.7249999999999996	0	0
6.75	4.75	0	0
6.6749999999999998	4.75	0	0
6.6749999999999998	4.7249999999999996	0	0
6.6749999999999998	4.6749999999999998	0	0
6.6749999999999998	4.6499999999999995	0	0
7.5000000000000009	4.6499999999999995	0	0
7.5000000000000009	4.6749999999999998	0	0
7.5000000000000009	4.7249999999999996	0	0
7.5000000000000009	4.75	0	0
7.5750000000000011	4.75	0	0
7.5750000000000011	4.7249999999999996	0	0
7.5750000000000011	4.6749999999999998	0	0
7.5750000000000011	4.6499999999999995	0	0
6.7489999999999997	4.6749999999999998	0	0
6.75	4.6500000000000004	0	0
5.9199999999999999	4.8499999999999996	0	0
8.3300000000000001	4.8499999999999996	0	0
8.3300000000000001	4.875	0	0
5.9199999999999999	4.875	0	0
5.625	4.8499999999999996	0	0
5.625	4.875	0	0
8.625	4.8499999999999996	0	0
8.625	4.875	0	0
[NumSegments] = 62
6	4	-1	0	0	0
3	0	-1	0	0	0
2	1	-1	0	0	0
9	14	-1	0	0	0
15	8	-1	0	0	0
10	13	-1	0	0	0
12	11	-1	0	0	0
15	14	-1	0	0	0
12	13	-1	0	0	0
10	11	-1	0	0	0
9	8	-1	0	0	0
5	7	-1	0	0	0
6	7	-1	0	0	0
5	4	-1	0	0	0
0	1	-1	0	0	0
2	3	-1	0	0	0
16	17	-1	0	0	0
18	19	-1	0	0	0
19	17	-1	0	0	0
28	26	-1	0	0	0
25	22	-1	0	0	0
24	23	-1	0	0	0
27	29	-1	0	0	0
28	29	-1	0	0	0
27	26	-1	0	0	0
22	23	-1	0	0	0
24	25	-1	0	0	0
31	36	-1	0	0	0
37	30	-1	0	0	0
32	35	-1	0	0	0
34	33	-1	0	0	0
37	36	-1	0	0	0
34	35	-1	0	0	0
32	33	-1	0	0	0
31	30	-1	0	0	0
16	18	-1	0	0	0
57	54	-1	0	0	0
56	55	-1	0	0	0
58	59	-1	0	0	0
54	55	-1	0	0	0
56	57	-1	0	0	0
61	66	-1	0	0	0
67	60	-1	0	0	0
62	65	-1	0	0	0
64	63	-1	0	0	0
67	66	-1	0	0	0
64	65	-1	0	0	0
62	63	-1	0	0	0
61	60	-1	0	0	0
58	68	-1	0	0	0
68	69	-1	0	0	0
59	69	-1	0	0	0
70	71	-1	0	0	0
71	72	-1	0	0	0
72	73	-1	0	0	0
73	70	-1	0	0	0
74	70	-1	0	0	0
73	75	-1	0	0	0
75	74	-1	0	0	0
71	76	-1	0	0	0
76	77	-1	0	0	0
77	72	-1	0	0	0
[NumArcSegments] = 16
38	39	180	1	0	0	0	1
39	38	180	1	0	0	0	1
40	41	180	1	0	0	0	1
41	40	180	1	0	0	0	1
42	43	180	1	0	0	0	1
43	42	180	1	0	0	0	1
44	45	180	1	0	0	0	1
45	44	180	1	0	0	0	1
46	47	180	1	0	0	0	1
47	46	180	1	0	0	0	1
48	49	180	1	0	0	0	1
49	48	180	1	0	0	0	1
50	51	180	1	0	0	0	1
51	50	180	1	0	0	0	1
52	53	180	1	3	0	0	1
53	52	180	1	3	0	0	1
[NumHoles] = 0
[NumBlockLabels] = 24
6.5499999999999998	4.6619999999999999	2	-1	2	0	0	1	0
7.6959999999999997	4.6599999999999993	2	-1	1	0	0	1	0
7.6829999999999998	4.7389999999999999	2	-1	1	0	0	1	0
6.3999999999999995	4.6619999999999999	2	-1	2	0	0	1	0
6.4099999999999993	4.7289999999999992	2	-1	2	0	0	1	0
7.8460000000000001	4.6599999999999993	2	-1	1	0	0	1	0
7.8330000000000002	4.7389999999999999	2	-1	1	0	0	1	0
8.8249090976426103	5.1131329429423102	21	-1	0	0	0	1	0
8.7489925386269523	5.4476797346919961	22	-1	0	0	0	1	0
8.6069959953895427	5.7652380656012401	23	-1	0	0	0	1	0
8.4027179119735305	6.0527179119735308	24	-1	0	0	0	1	0
8.1425549777557578	6.2978786435382199	25	-1	0	0	0	1	0
7.8353121674020381	6.4898452680606278	26	-1	0	0	0	1	0
7.4919102146820808	6.6195822123355983	27	-1	0	0	0	1	0
6.6999999999999993	4.6619999999999999	2	-1	2	0	0	1	0
6.7099999999999991	4.7289999999999992	2	-1	2	0	0	1	0
7.5460000000000003	4.6599999999999993	2	-1	1	0	0	1	0
7.5330000000000004	4.7389999999999999	2	-1	1	0	0	1	0
6.9299999999999997	5.5999999999999996	1	-1	0	0	0	1	0
6.5700000000000003	4.7389999999999999	2	-1	2	0	0	1	0
7.125	4.5750000000000002	3	-1	0	0	0	1	0
7.125	4.8624999999999998	3	-1	0	0	0	1	0
5.6299999999999999	4.8624999999999998	1	-1	0	0	0	1	0
8.6199999999999992	4.8624999999999998	1	-1	0	0	0	1	0
